examples/feeders/2_PAL2_1/005_segmentoMT.dss
New Line.SMT_10023 phases=3 bus1=690611.1.2.3 bus2= 690621.1.2.3 linecode=10_3 length=0.02483 units=km
New Line.SMT_10029 phases=3 bus1=690621.1.2.3 bus2= 690631.1.2.3 linecode=10_3 length=0.04535 units=km
New Line.SMT_10122 phases=3 bus1=690601.1.2.3 bus2= 690611.1.2.3 linecode=10_3 length=0.0582 units=km
New Line.SMT_10153 phases=3 bus1=2CO154.1.2.3 bus2= 616901.1.2.3 linecode=28_3 length=0.09245 units=km
New Line.SMT_10191 phases=3 bus1=690651.1.2.3 bus2= 690661.1.2.3 linecode=10_3 length=0.08993 units=km
New Line.SMT_10311 phases=3 bus1=581881.1.2.3 bus2= 581891.1.2.3 linecode=28_3 length=0.15348 units=km
New Line.SMT_10315 phases=3 bus1=581871.1.2.3 bus2= 581881.1.2.3 linecode=28_3 length=0.10986 units=km
New Line.SMT_10316 phases=3 bus1=581891.1.2.3 bus2= 581901.1.2.3 linecode=28_3 length=0.10062 units=km
New Line.SMT_10348 phases=3 bus1=551891.1.2.3 bus2= 552071.1.2.3 linecode=13_3 length=0.0642 units=km
New Line.SMT_10351 phases=3 bus1=552211.1.2.3 bus2= 552221.1.2.3 linecode=13_3 length=0.08515 units=km
New Line.SMT_10352 phases=3 bus1=552301.1.2.3 bus2= 552311.1.2.3 linecode=28_3 length=0.09166 units=km
New Line.SMT_10367 phases=3 bus1=4601.1.2.3 bus2= 4611.1.2.3 linecode=28_3 length=0.08584 units=km
New Line.SMT_10386 phases=3 bus1=708881.1.2.3 bus2= 708891.1.2.3 linecode=10_3 length=0.09868 units=km
New Line.SMT_10395 phases=3 bus1=2CF1228.1.2.3 bus2= 708931.1.2.3 linecode=10_3 length=0.0794 units=km
New Line.SMT_10405 phases=3 bus1=708931.1.2.3 bus2= 708941.1.2.3 linecode=10_3 length=0.10409 units=km
New Line.SMT_10446 phases=3 bus1=708941.1.2.3 bus2= 708951.1.2.3 linecode=10_3 length=0.10548 units=km
New Line.SMT_10482 phases=3 bus1=708891.1.2.3 bus2= 708901.1.2.3 linecode=10_3 length=0.09361 units=km
New Line.SMT_10519 phases=3 bus1=552291.1.2.3 bus2= 552281.1.2.3 linecode=28_3 length=0.033 units=km
New Line.SMT_1052 phases=3 bus1=636521.1.2.3 bus2= 636531.1.2.3 linecode=13_3 length=0.08184 units=km
New Line.SMT_1053 phases=3 bus1=74301.1.2.3 bus2= 127161.1.2.3 linecode=10_3 length=0.0708 units=km
New Line.SMT_10539 phases=3 bus1=708901.1.2.3 bus2= 708911.1.2.3 linecode=10_3 length=0.0816 units=km
New Line.SMT_10579 phases=3 bus1=358461.1.2.3 bus2= 708871.1.2.3 linecode=13_3 length=0.08078 units=km
New Line.SMT_10649 phases=3 bus1=4611.1.2.3 bus2= 4621.1.2.3 linecode=28_3 length=0.0761 units=km
New Line.SMT_10689 phases=3 bus1=625961.1.2.3 bus2= 625951.1.2.3 linecode=28_3 length=0.11521 units=km
New Line.SMT_10706 phases=3 bus1=552241.1.2.3 bus2= 552251.1.2.3 linecode=13_3 length=0.07718 units=km
New Line.SMT_10709 phases=3 bus1=619881.1.2.3 bus2= 619891.1.2.3 linecode=10_3 length=0.12211 units=km
New Line.SMT_10711 phases=3 bus1=4651.1.2.3 bus2= 4661.1.2.3 linecode=28_3 length=0.07102 units=km
New Line.SMT_10764 phases=3 bus1=625941.1.2.3 bus2= 625931.1.2.3 linecode=28_3 length=0.11183 units=km
New Line.SMT_10771 phases=3 bus1=439541.1.2.3 bus2= 256211.1.2.3 linecode=10_3 length=0.00282 units=km
New Line.SMT_10814 phases=3 bus1=2CF932.1.2.3 bus2= 619731.1.2.3 linecode=10_3 length=0.08968 units=km
New Line.SMT_10817 phases=3 bus1=625911.1.2.3 bus2= 625801.1.2.3 linecode=28_3 length=0.06671 units=km
New Line.SMT_10938 phases=3 bus1=552251.1.2.3 bus2= 552261.1.2.3 linecode=13_3 length=0.07489 units=km
New Line.SMT_10944 phases=3 bus1=2CF162.1.2.3 bus2= 50401.1.2.3 linecode=10_3 length=0.10649 units=km
New Line.SMT_10956 phases=3 bus1=708871.1.2.3 bus2= 708881.1.2.3 linecode=13_3 length=0.09301 units=km
New Line.SMT_10969 phases=3 bus1=4661.1.2.3 bus2= 625971.1.2.3 linecode=28_3 length=0.09296 units=km
New Line.SMT_10970 phases=3 bus1=625971.1.2.3 bus2= 625961.1.2.3 linecode=28_3 length=0.09677 units=km
New Line.SMT_11008 phases=3 bus1=41551.1.2.3 bus2= 454831.1.2.3 linecode=28_3 length=0.08968 units=km
New Line.SMT_11032 phases=3 bus1=552221.1.2.3 bus2= 552231.1.2.3 linecode=13_3 length=0.08092 units=km
New Line.SMT_11045 phases=3 bus1=746001.1.2.3 bus2= 552271.1.2.3 linecode=13_3 length=0.01082 units=km
New Line.SMT_11139 phases=3 bus1=552231.1.2.3 bus2= 552241.1.2.3 linecode=13_3 length=0.07783 units=km
New Line.SMT_11178 phases=3 bus1=551941.1.2.3 bus2= 551951.1.2.3 linecode=10_3 length=0.11044 units=km
New Line.SMT_11198 phases=3 bus1=708911.1.2.3 bus2= 708921.1.2.3 linecode=10_3 length=0.09621 units=km
New Line.SMT_11210 phases=3 bus1=42031.1.2.3 bus2= 552291.1.2.3 linecode=28_3 length=0.07401 units=km
New Line.SMT_11288 phases=3 bus1=19141.1.2.3 bus2= 664761.1.2.3 linecode=10_3 length=0.0666 units=km
New Line.SMT_11290 phases=3 bus1=131121.1.2.3 bus2= 664811.1.2.3 linecode=10_3 length=0.11947 units=km
New Line.SMT_11315 phases=3 bus1=70191.1.2.3 bus2= 238451.1.2.3 linecode=10_3 length=0.09847 units=km
New Line.SMT_11335 phases=1 bus1=4071.3 bus2= 338341.3 linecode=1_1 length=0.11236 units=km
New Line.SMT_11584 phases=3 bus1=552171.1.2.3 bus2= 552181.1.2.3 linecode=13_3 length=0.06294 units=km
New Line.SMT_11591 phases=3 bus1=552141.1.2.3 bus2= 552151.1.2.3 linecode=13_3 length=0.08104 units=km
New Line.SMT_11609 phases=3 bus1=552131.1.2.3 bus2= 552141.1.2.3 linecode=13_3 length=0.07305 units=km
New Line.SMT_11618 phases=3 bus1=552151.1.2.3 bus2= 552161.1.2.3 linecode=13_3 length=0.07501 units=km
New Line.SMT_11629 phases=3 bus1=50391.1.2.3 bus2= 620341.1.2.3 linecode=10_3 length=0.00248 units=km
New Line.SMT_11632 phases=3 bus1=238451.1.2.3 bus2= 247731.1.2.3 linecode=10_3 length=0.09533 units=km
New Line.SMT_11696 phases=3 bus1=552161.1.2.3 bus2= 552171.1.2.3 linecode=13_3 length=0.073 units=km
New Line.SMT_11784 phases=3 bus1=78771.1.2.3 bus2= 618341.1.2.3 linecode=28_3 length=0.11086 units=km
New Line.SMT_118 phases=3 bus1=25931.1.2.3 bus2= 642121.1.2.3 linecode=10_3 length=0.00315 units=km
New Line.SMT_11807 phases=3 bus1=529451.1.2.3 bus2= 507681.1.2.3 linecode=28_3 length=0.11473 units=km
New Line.SMT_1182 phases=3 bus1=4601.1.2.3 bus2= 636481.1.2.3 linecode=13_3 length=0.1203 units=km
New Line.SMT_11834 phases=3 bus1=2CO419.1.2.3 bus2= 296961.1.2.3 linecode=12_3 length=0.00141 units=km
New Line.SMT_11859 phases=3 bus1=741191.1.2.3 bus2= 581551.1.2.3 linecode=10_3 length=0.08438 units=km
New Line.SMT_11886 phases=3 bus1=581551.1.2.3 bus2= 581561.1.2.3 linecode=10_3 length=0.09159 units=km
New Line.SMT_11887 phases=3 bus1=581561.1.2.3 bus2= 581571.1.2.3 linecode=10_3 length=0.08881 units=km
New Line.SMT_11896 phases=3 bus1=638191.1.2.3 bus2= 638201.1.2.3 linecode=12_3 length=0.08249 units=km
New Line.SMT_11899 phases=3 bus1=233381.1.2.3 bus2= 638191.1.2.3 linecode=12_3 length=0.08188 units=km
New Line.SMT_11901 phases=3 bus1=638201.1.2.3 bus2= 638211.1.2.3 linecode=12_3 length=0.07161 units=km
New Line.SMT_11902 phases=3 bus1=638281.1.2.3 bus2= 638271.1.2.3 linecode=12_3 length=0.05844 units=km
New Line.SMT_11985 phases=3 bus1=529551.1.2.3 bus2= 529541.1.2.3 linecode=28_3 length=0.09071 units=km
New Line.SMT_11986 phases=3 bus1=507671.1.2.3 bus2= 529531.1.2.3 linecode=28_3 length=0.13439 units=km
New Line.SMT_12028 phases=3 bus1=192261.1.2.3 bus2= 78771.1.2.3 linecode=28_3 length=0.09657 units=km
New Line.SMT_12029 phases=3 bus1=617891.1.2.3 bus2= 356631.1.2.3 linecode=28_3 length=0.0886 units=km
New Line.SMT_12069 phases=3 bus1=365791.1.2.3 bus2= 258721.1.2.3 linecode=12_3 length=0.01787 units=km
New Line.SMT_12075 phases=3 bus1=737251.1.2.3 bus2= 638291.1.2.3 linecode=36_3 length=0.06332 units=km
New Line.SMT_12079 phases=3 bus1=638241.1.2.3 bus2= 638261.1.2.3 linecode=12_3 length=0.07547 units=km
New Line.SMT_12649 phases=1 bus1=581981.1 bus2= 581991.1 linecode=1_1 length=0.1051 units=km
New Line.SMT_12650 phases=1 bus1=581991.1 bus2= 582001.1 linecode=1_1 length=0.10602 units=km
New Line.SMT_12651 phases=1 bus1=582011.1 bus2= 582021.1 linecode=1_1 length=0.14807 units=km
New Line.SMT_12750 phases=1 bus1=581941.1 bus2= 581951.1 linecode=1_1 length=0.132 units=km
New Line.SMT_12751 phases=1 bus1=581961.1 bus2= 581971.1 linecode=1_1 length=0.10375 units=km
New Line.SMT_12780 phases=1 bus1=581971.1 bus2= 581981.1 linecode=1_1 length=0.10108 units=km
New Line.SMT_13398 phases=3 bus1=25531.1.2.3 bus2= 574741.1.2.3 linecode=10_3 length=0.00471 units=km
New Line.SMT_1342 phases=3 bus1=4671.1.2.3 bus2= 621181.1.2.3 linecode=11_3 length=0.12233 units=km
New Line.SMT_13453 phases=3 bus1=317541.1.2.3 bus2= 338101.1.2.3 linecode=28_3 length=0.13662 units=km
New Line.SMT_14197 phases=3 bus1=174551.1.2.3 bus2= 174561.1.2.3 linecode=28_3 length=0.08193 units=km
New Line.SMT_1428 phases=3 bus1=621191.1.2.3 bus2= 605291.1.2.3 linecode=11_3 length=0.11498 units=km
New Line.SMT_14365 phases=3 bus1=529531.1.2.3 bus2= 529451.1.2.3 linecode=28_3 length=0.12181 units=km
New Line.SMT_1437 phases=3 bus1=2CF1012.1.2.3 bus2= 624691.1.2.3 linecode=28_3 length=0.0035 units=km
New Line.SMT_1448 phases=3 bus1=621201.1.2.3 bus2= 621211.1.2.3 linecode=11_3 length=0.13186 units=km
New Line.SMT_14737 phases=1 bus1=581951.1 bus2= 581961.1 linecode=1_1 length=0.10062 units=km
New Line.SMT_15440 phases=3 bus1=26221.1.2.3 bus2= 352851.1.2.3 linecode=13_3 length=0.12326 units=km
New Line.SMT_15838 phases=1 bus1=329431.1 bus2= 450371.1 linecode=1_1 length=0.03102 units=km
New Line.SMT_15848 phases=1 bus1=132121.1 bus2= 20671.1 linecode=1_1 length=0.00085 units=km
New Line.SMT_1592 phases=1 bus1=58151.2 bus2= 619571.2 linecode=1_1 length=0.00906 units=km
New Line.SMT_15922 phases=3 bus1=75571.1.2.3 bus2= 430601.1.2.3 linecode=10_3 length=0.0828 units=km
New Line.SMT_1599 phases=1 bus1=758921.1 bus2= 759051.1 linecode=1_1 length=0.00208 units=km
New Line.SMT_16011 phases=3 bus1=586261.1.2.3.4 bus2= 586271.1.2.3.4 linecode=21_3 length=0.09261 units=km
New Line.SMT_16012 phases=3 bus1=586271.1.2.3.4 bus2= 586281.1.2.3.4 linecode=21_3 length=0.09849 units=km
New Line.SMT_16039 phases=3 bus1=67981.1.2.3 bus2= 157231.1.2.3 linecode=28_3 length=0.17582 units=km
New Line.SMT_16043 phases=3 bus1=157241.1.2.3 bus2= 195551.1.2.3 linecode=28_3 length=0.09992 units=km
New Line.SMT_16050 phases=3 bus1=195581.1.2.3 bus2= 195591.1.2.3 linecode=28_3 length=0.11666 units=km
New Line.SMT_16051 phases=1 bus1=552701.2 bus2= 552711.2 linecode=1_1 length=0.09823 units=km
New Line.SMT_16080 phases=3 bus1=586281.1.2.3.4 bus2= 586291.1.2.3.4 linecode=21_3 length=0.11063 units=km
New Line.SMT_16109 phases=3 bus1=2CF1444.1.2.3 bus2= 685461.1.2.3 linecode=10_3 length=0.10286 units=km
New Line.SMT_1618 phases=1 bus1=302611.1 bus2= 302621.1 linecode=1_1 length=0.10218 units=km
New Line.SMT_16198 phases=1 bus1=582001.1 bus2= 582011.1 linecode=1_1 length=0.08319 units=km
New Line.SMT_16238 phases=3 bus1=586291.1.2.3.4 bus2= 586301.1.2.3.4 linecode=21_3 length=0.09405 units=km
New Line.SMT_16239 phases=3 bus1=586301.1.2.3.4 bus2= 586311.1.2.3.4 linecode=21_3 length=0.09795 units=km
New Line.SMT_16266 phases=1 bus1=66351.2 bus2= 619701.2 linecode=1_1 length=0.07301 units=km
New Line.SMT_16313 phases=3 bus1=583351.1.2.3 bus2= 583341.1.2.3 linecode=28_3 length=0.11065 units=km
New Line.SMT_16321 phases=3 bus1=586321.1.2.3.4 bus2= 586331.1.2.3.4 linecode=21_3 length=0.11002 units=km
New Line.SMT_16322 phases=3 bus1=296961.1.2.3 bus2= 365771.1.2.3 linecode=12_3 length=0.0025 units=km
New Line.SMT_16323 phases=3 bus1=583381.1.2.3 bus2= 583371.1.2.3 linecode=28_3 length=0.11673 units=km
New Line.SMT_16339 phases=3 bus1=586331.1.2.3.4 bus2= 586341.1.2.3.4 linecode=21_3 length=0.13437 units=km
New Line.SMT_16356 phases=3 bus1=586311.1.2.3.4 bus2= 586321.1.2.3.4 linecode=21_3 length=0.13105 units=km
New Line.SMT_16397 phases=1 bus1=612251.3 bus2= 652821.3 linecode=1_1 length=0.01838 units=km
New Line.SMT_164 phases=3 bus1=650651.1.2.3 bus2= 650661.1.2.3 linecode=10_3 length=0.12518 units=km
New Line.SMT_16409 phases=1 bus1=2FR960.2 bus2= 556091.2 linecode=1_1 length=0.10673 units=km
New Line.SMT_16413 phases=3 bus1=2RL2.1.2.3 bus2= 365791.1.2.3 linecode=12_3 length=0.00221 units=km
New Line.SMT_16444 phases=3 bus1=552071.1.2.3 bus2= 552081.1.2.3 linecode=13_3 length=0.09246 units=km
New Line.SMT_16486 phases=3 bus1=586241.1.2.3.4 bus2= 586251.1.2.3.4 linecode=21_3 length=0.10216 units=km
New Line.SMT_16492 phases=3 bus1=586211.1.2.3.4 bus2= 586221.1.2.3.4 linecode=21_3 length=0.10041 units=km
New Line.SMT_16493 phases=3 bus1=586221.1.2.3.4 bus2= 586231.1.2.3.4 linecode=21_3 length=0.10183 units=km
New Line.SMT_16510 phases=3 bus1=621281.1.2.3 bus2= 541111.1.2.3 linecode=28_3 length=0.09626 units=km
New Line.SMT_16511 phases=3 bus1=581901.1.2.3 bus2= 581911.1.2.3 linecode=28_3 length=0.10332 units=km
New Line.SMT_16536 phases=3 bus1=358451.1.2.3.4 bus2= 586151.1.2.3.4 linecode=21_3 length=0.10436 units=km
New Line.SMT_16537 phases=3 bus1=586151.1.2.3.4 bus2= 586161.1.2.3.4 linecode=21_3 length=0.0975 units=km
New Line.SMT_16545 phases=3 bus1=586171.1.2.3.4 bus2= 586181.1.2.3.4 linecode=21_3 length=0.09621 units=km
New Line.SMT_16546 phases=3 bus1=586181.1.2.3.4 bus2= 586191.1.2.3.4 linecode=21_3 length=0.11385 units=km
New Line.SMT_16553 phases=3 bus1=552081.1.2.3 bus2= 552091.1.2.3 linecode=13_3 length=0.0781 units=km
New Line.SMT_16560 phases=3 bus1=586231.1.2.3.4 bus2= 586241.1.2.3.4 linecode=21_3 length=0.10065 units=km
New Line.SMT_16567 phases=3 bus1=627771.1.2.3 bus2= 627761.1.2.3 linecode=10_3 length=0.10867 units=km
New Line.SMT_16576 phases=3 bus1=609111.1.2.3 bus2= 627771.1.2.3 linecode=10_3 length=0.06901 units=km
New Line.SMT_16597 phases=3 bus1=2FR879.1.2.3 bus2= 608181.1.2.3 linecode=10_3 length=0.09646 units=km
New Line.SMT_16620 phases=3 bus1=56331.1.2.3 bus2= 288271.1.2.3 linecode=10_3 length=0.13793 units=km
New Line.SMT_16657 phases=3 bus1=506141.1.2.3 bus2= 509421.1.2.3 linecode=28_3 length=0.10797 units=km
New Line.SMT_16752 phases=1 bus1=608351.3 bus2= 612251.3 linecode=1_1 length=0.15322 units=km
New Line.SMT_16807 phases=3 bus1=586191.1.2.3.4 bus2= 586201.1.2.3.4 linecode=21_3 length=0.11739 units=km
New Line.SMT_16821 phases=3 bus1=623721.1.2.3 bus2= 623731.1.2.3 linecode=10_3 length=0.13481 units=km
New Line.SMT_16831 phases=3 bus1=623731.1.2.3 bus2= 623741.1.2.3 linecode=10_3 length=0.10735 units=km
New Line.SMT_16846 phases=3 bus1=623741.1.2.3 bus2= 623751.1.2.3 linecode=10_3 length=0.08698 units=km
New Line.SMT_16863 phases=1 bus1=560381.2 bus2= 560391.2 linecode=1_1 length=0.10866 units=km
New Line.SMT_16886 phases=3 bus1=608211.1.2.3 bus2= 623701.1.2.3 linecode=10_3 length=0.10143 units=km
New Line.SMT_16936 phases=3 bus1=623751.1.2.3 bus2= 623761.1.2.3 linecode=10_3 length=0.1005 units=km
New Line.SMT_16937 phases=3 bus1=623761.1.2.3 bus2= 623771.1.2.3 linecode=10_3 length=0.10346 units=km
New Line.SMT_16951 phases=3 bus1=623781.1.2.3 bus2= 623791.1.2.3 linecode=10_3 length=0.11732 units=km
New Line.SMT_16972 phases=3 bus1=447731.1.2.3 bus2= 621631.1.2.3 linecode=28_3 length=0.10507 units=km
New Line.SMT_16992 phases=1 bus1=338341.3 bus2= 337921.3 linecode=1_1 length=0.15567 units=km
New Line.SMT_17006 phases=1 bus1=560351.2 bus2= 560361.2 linecode=1_1 length=0.11136 units=km
New Line.SMT_17007 phases=1 bus1=560361.2 bus2= 560371.2 linecode=1_1 length=0.10904 units=km
New Line.SMT_17009 phases=1 bus1=556121.2 bus2= 556141.2 linecode=1_1 length=0.10742 units=km
New Line.SMT_17032 phases=1 bus1=556141.2 bus2= 556151.2 linecode=1_1 length=0.12022 units=km
New Line.SMT_17033 phases=1 bus1=556161.2 bus2= 560301.2 linecode=1_1 length=0.09552 units=km
New Line.SMT_17038 phases=3 bus1=617901.1.2.3 bus2= 616121.1.2.3 linecode=13_3 length=0.15546 units=km
New Line.SMT_17064 phases=3 bus1=623801.1.2.3 bus2= 623811.1.2.3 linecode=10_3 length=0.10042 units=km
New Line.SMT_17077 phases=3 bus1=621661.1.2.3 bus2= 621671.1.2.3 linecode=28_3 length=0.13465 units=km
New Line.SMT_17079 phases=1 bus1=560371.2 bus2= 560381.2 linecode=1_1 length=0.11275 units=km
New Line.SMT_17090 phases=3 bus1=608191.1.2.3 bus2= 608201.1.2.3 linecode=10_3 length=0.10226 units=km
New Line.SMT_17094 phases=1 bus1=621671.2 bus2= 621711.2 linecode=1_1 length=0.17835 units=km
New Line.SMT_17095 phases=3 bus1=49981.1.2.3 bus2= 617861.1.2.3 linecode=28_3 length=0.06451 units=km
New Line.SMT_17096 phases=3 bus1=617881.1.2.3 bus2= 617891.1.2.3 linecode=28_3 length=0.19371 units=km
New Line.SMT_17104 phases=1 bus1=556151.2 bus2= 556161.2 linecode=1_1 length=0.12209 units=km
New Line.SMT_17106 phases=3 bus1=47771.1.2.3 bus2= 617901.1.2.3 linecode=13_3 length=0.12333 units=km
New Line.SMT_17119 phases=1 bus1=560301.2 bus2= 560311.2 linecode=1_1 length=0.11597 units=km
New Line.SMT_17140 phases=1 bus1=11221.3 bus2= 613201.3 linecode=1_1 length=0.05869 units=km
New Line.SMT_17161 phases=1 bus1=623001.1 bus2= 623011.1 linecode=1_1 length=0.1106 units=km
New Line.SMT_17162 phases=1 bus1=623021.1 bus2= 623031.1 linecode=1_1 length=0.10842 units=km
New Line.SMT_17163 phases=1 bus1=623031.1 bus2= 623041.1 linecode=1_1 length=0.11305 units=km
New Line.SMT_17164 phases=1 bus1=623051.1 bus2= 623061.1 linecode=1_1 length=0.1213 units=km
New Line.SMT_17188 phases=3 bus1=623821.1.2.3 bus2= 627691.1.2.3 linecode=10_3 length=0.09808 units=km
New Line.SMT_17189 phases=3 bus1=627691.1.2.3 bus2= 627701.1.2.3 linecode=10_3 length=0.1908 units=km
New Line.SMT_17198 phases=3 bus1=623701.1.2.3 bus2= 623711.1.2.3 linecode=10_3 length=0.10098 units=km
New Line.SMT_17199 phases=3 bus1=623711.1.2.3 bus2= 623721.1.2.3 linecode=10_3 length=0.10143 units=km
New Line.SMT_17206 phases=3 bus1=627701.1.2.3 bus2= 627711.1.2.3 linecode=10_3 length=0.09181 units=km
New Line.SMT_17207 phases=3 bus1=627711.1.2.3 bus2= 627721.1.2.3 linecode=10_3 length=0.09 units=km
New Line.SMT_17239 phases=3 bus1=476511.1.2.3 bus2= 541071.1.2.3 linecode=28_3 length=0.11885 units=km
New Line.SMT_17240 phases=3 bus1=541071.1.2.3 bus2= 541081.1.2.3 linecode=28_3 length=0.12192 units=km
New Line.SMT_17244 phases=3 bus1=315151.1.2.3 bus2= 318931.1.2.3 linecode=10_3 length=0.06485 units=km
New Line.SMT_17262 phases=1 bus1=602721.3 bus2= 602731.3 linecode=1_1 length=0.12233 units=km
New Line.SMT_17263 phases=1 bus1=602741.3 bus2= 602751.3 linecode=1_1 length=0.11778 units=km
New Line.SMT_17268 phases=3 bus1=41571.1.2.3 bus2= 37271.1.2.3 linecode=10_3 length=0.00256 units=km
New Line.SMT_17292 phases=3 bus1=319641.1.2.3 bus2= 319651.1.2.3 linecode=13_3 length=0.11562 units=km
New Line.SMT_17293 phases=1 bus1=556091.2 bus2= 556121.2 linecode=1_1 length=0.11102 units=km
New Line.SMT_17296 phases=1 bus1=560321.2 bus2= 560331.2 linecode=1_1 length=0.13662 units=km
New Line.SMT_17320 phases=3 bus1=627721.1.2.3 bus2= 627731.1.2.3 linecode=10_3 length=0.08323 units=km
New Line.SMT_17321 phases=3 bus1=627731.1.2.3 bus2= 627741.1.2.3 linecode=10_3 length=0.06907 units=km
New Line.SMT_17342 phases=1 bus1=622961.1 bus2= 622971.1 linecode=1_1 length=0.11402 units=km
New Line.SMT_17358 phases=1 bus1=602711.3 bus2= 602721.3 linecode=1_1 length=0.10841 units=km
New Line.SMT_17359 phases=1 bus1=602781.3 bus2= 602791.3 linecode=1_1 length=0.08864 units=km
New Line.SMT_17365 phases=1 bus1=622991.1 bus2= 623001.1 linecode=1_1 length=0.11183 units=km
New Line.SMT_17366 phases=1 bus1=623011.1 bus2= 623021.1 linecode=1_1 length=0.11209 units=km
New Line.SMT_17367 phases=1 bus1=623041.1 bus2= 623051.1 linecode=1_1 length=0.11209 units=km
New Line.SMT_17375 phases=1 bus1=623061.1 bus2= 623071.1 linecode=1_1 length=0.10455 units=km
New Line.SMT_17391 phases=3 bus1=605321.1.2.3 bus2= 605331.1.2.3 linecode=11_3 length=0.12567 units=km
New Line.SMT_17393 phases=3 bus1=667181.1.2.3 bus2= 611521.1.2.3 linecode=10_3 length=0.09902 units=km
New Line.SMT_17399 phases=1 bus1=560411.2 bus2= 560421.2 linecode=1_1 length=0.09244 units=km
New Line.SMT_17407 phases=3 bus1=4591.1.2.3 bus2= 476471.1.2.3 linecode=28_3 length=0.03612 units=km
New Line.SMT_17409 phases=3 bus1=476471.1.2.3 bus2= 636291.1.2.3 linecode=28_3 length=0.10999 units=km
New Line.SMT_17420 phases=3 bus1=618341.1.2.3 bus2= 506141.1.2.3 linecode=28_3 length=0.07433 units=km
New Line.SMT_17435 phases=3 bus1=627751.1.2.3 bus2= 609111.1.2.3 linecode=10_3 length=0.08106 units=km
New Line.SMT_17452 phases=3 bus1=625931.1.2.3 bus2= 625921.1.2.3 linecode=28_3 length=0.08515 units=km
New Line.SMT_17453 phases=1 bus1=73741.3 bus2= 602701.3 linecode=1_1 length=0.1535 units=km
...
